/*---------------------------------------------------------------------------*\
| =========                 |                                                 |
| \\      /  F ield         | OpenFOAM: The Open Source CFD Toolbox           |
|  \\    /   O peration     | Version:  2006                                  |
|   \\  /    A nd           | Website:  www.openfoam.com                      |
|    \\/     M anipulation  |                                                 |
\*---------------------------------------------------------------------------*/
Build  : 295eef47-20201012 OPENFOAM=2006 patch=201012
Arch   : "LSB;label=32;scalar=64"
Exec   : overPimpleDyMFoam -parallel
Date   : Oct 18 2020
Time   : 20:57:54
Host   : f9d322d6323f
PID    : 5880
I/O    : uncollated
Case   : /home/cfd/overlaytest/background
nProcs : 6
Hosts  :
(
    (f9d322d6323f 6)
)
Pstream initialized with:
    floatTransfer      : 0
    nProcsSimpleSum    : 0
    commsType          : nonBlocking
    polling iterations : 0
trapFpe: Floating point exception trapping enabled (FOAM_SIGFPE).
fileModificationChecking : Monitoring run-time modified files using timeStampMaster (fileModificationSkew 5, maxFileModificationPolls 20)
allowSystemOperations : Allowing user-supplied system call operations

// * * * * * * * * * * * * * * * * * * * * * * * * * * * * * * * * * * * * * //
Create time

Create mesh for time = 0

Selecting dynamicFvMesh dynamicOversetFvMesh
Selecting motion solver: solidBody
Applying solid body motion to cellZone movingZone
Selecting solid-body motion function linearMotion
Applying solid body motion to cellZone movingZone

PIMPLE: Operating solver in PISO mode

Reading field p

Reading field U

Reading/calculating face flux field phi

Creating cellMask field to block out hole cells

Creating interpolatedCells field 

Selecting incompressible transport model Newtonian
Selecting turbulence model type RAS
Selecting RAS turbulence model kOmegaSST
Selecting patchDistMethod meshWave
RAS
{
    RASModel        kOmegaSST;
    turbulence      on;
    printCoeffs     on;
    alphaK1         0.85;
    alphaK2         1;
    alphaOmega1     0.5;
    alphaOmega2     0.856;
    gamma1          0.5555556;
    gamma2          0.44;
    beta1           0.075;
    beta2           0.0828;
    betaStar        0.09;
    a1              0.31;
    b1              1;
    c1              10;
    F3              false;
    decayControl    false;
    kInf            0;
    omegaInf        0;
}

Reading/calculating face velocity Uf

No MRF models present

No finite volume options present
Courant Number mean: 0 max: 0

Starting time loop

Courant Number mean: 0 max: 0
deltaT = 0.00125
Time = 0.00125

inverseDistance : detected 2 mesh regions
    zone:0 nCells:1000000  voxels:(58 58 58) bb:(-5.000013 -5.000013 -5.000013) (1.500013 -0.6999873 5.000013)
    zone:1 nCells:222147  voxels:(58 58 58) bb:(-25.00002 -25.00002 -25.00002) (-14.99998 -14.99998 -14.99998)
Overset analysis : nCells : 1222147
    calculated   : 222147
    interpolated : 0 (interpolated from local:0  mixed local/remote:0  remote:0)
    hole         : 1000000

PIMPLE: iteration 1
DILUPBiCG:  Solving for Ux, Initial residual = 1, Final residual = 4.43779e-07, No Iterations 7
DILUPBiCG:  Solving for Uy, Initial residual = 1, Final residual = 5.231858e-07, No Iterations 7
DILUPBiCG:  Solving for Uz, Initial residual = 1, Final residual = 4.010974e-07, No Iterations 7
DICPCG:  Solving for p, Initial residual = 1, Final residual = 0.009024055, No Iterations 66
DICPCG:  Solving for p, Initial residual = 0.007283205, Final residual = 7.119069e-05, No Iterations 27
time step continuity errors : sum local = 2.657082e-09, global = 5.351588e-10, cumulative = 5.351588e-10
DICPCG:  Solving for p, Initial residual = 0.006186272, Final residual = 6.125528e-05, No Iterations 63
DICPCG:  Solving for p, Initial residual = 0.003443926, Final residual = 9.728582e-07, No Iterations 80
time step continuity errors : sum local = 2.970196e-11, global = -6.233252e-13, cumulative = 5.345355e-10
DILUPBiCG:  Solving for omega, Initial residual = 0.0007401221, Final residual = 1.932898e-07, No Iterations 2
DILUPBiCG:  Solving for k, Initial residual = 1, Final residual = 4.000676e-07, No Iterations 4
ExecutionTime = 25.89 s  ClockTime = 41 s

Courant Number mean: 3.370502e-05 max: 0.230075
deltaT = 0.001458333
Time = 0.002708333

inverseDistance : detected 2 mesh regions
    zone:0 nCells:1000000  voxels:(58 58 58) bb:(-5.000013 -5.000013 -5.000013) (1.500013 -0.6999873 5.000013)
    zone:1 nCells:222147  voxels:(58 58 58) bb:(-25.00002 -25.00002 -25.00002) (-14.99998 -14.99998 -14.99998)
Overset analysis : nCells : 1222147
    calculated   : 222147
    interpolated : 0 (interpolated from local:0  mixed local/remote:0  remote:0)
    hole         : 1000000

PIMPLE: iteration 1
DILUPBiCG:  Solving for Ux, Initial residual = 0.01813348, Final residual = 1.807726e-07, No Iterations 4
DILUPBiCG:  Solving for Uy, Initial residual = 0.3287134, Final residual = 3.609874e-07, No Iterations 5
DILUPBiCG:  Solving for Uz, Initial residual = 0.3289428, Final residual = 3.610477e-07, No Iterations 5
DICPCG:  Solving for p, Initial residual = 0.03096775, Final residual = 0.0003079763, No Iterations 66
DICPCG:  Solving for p, Initial residual = 0.03677465, Final residual = 0.0003273074, No Iterations 28
time step continuity errors : sum local = 4.699558e-09, global = -7.554087e-10, cumulative = -2.208733e-10
DICPCG:  Solving for p, Initial residual = 0.02535235, Final residual = 0.000227996, No Iterations 69
DICPCG:  Solving for p, Initial residual = 0.04628313, Final residual = 8.938608e-07, No Iterations 105
time step continuity errors : sum local = 2.852102e-12, global = 7.671938e-15, cumulative = -2.208656e-10
DILUPBiCG:  Solving for omega, Initial residual = 0.0006639017, Final residual = 1.132319e-07, No Iterations 2
DILUPBiCG:  Solving for k, Initial residual = 0.9997209, Final residual = 5.432696e-07, No Iterations 3
ExecutionTime = 44.53 s  ClockTime = 74 s

Courant Number mean: 3.922741e-05 max: 0.2535861
deltaT = 0.001822917
Time = 0.00453125

inverseDistance : detected 2 mesh regions
    zone:0 nCells:1000000  voxels:(58 58 58) bb:(-5.000013 -5.000013 -5.000013) (1.500013 -0.6999873 5.000013)
    zone:1 nCells:222147  voxels:(58 58 58) bb:(-25.00002 -25.00002 -25.00002) (-14.99998 -14.99998 -14.99998)
Overset analysis : nCells : 1222147
    calculated   : 222147
    interpolated : 0 (interpolated from local:0  mixed local/remote:0  remote:0)
    hole         : 1000000

PIMPLE: iteration 1
DILUPBiCG:  Solving for Ux, Initial residual = 0.002199438, Final residual = 1.75751e-07, No Iterations 3
DILUPBiCG:  Solving for Uy, Initial residual = 0.02026176, Final residual = 5.466052e-07, No Iterations 4
DILUPBiCG:  Solving for Uz, Initial residual = 0.02017757, Final residual = 5.622906e-07, No Iterations 4
DICPCG:  Solving for p, Initial residual = 0.03284453, Final residual = 0.0003037953, No Iterations 58
DICPCG:  Solving for p, Initial residual = 0.05318015, Final residual = 0.000503448, No Iterations 32
time step continuity errors : sum local = 1.735495e-10, global = 4.326425e-11, cumulative = -1.776013e-10
DICPCG:  Solving for p, Initial residual = 0.1404584, Final residual = 0.001403614, No Iterations 64
DICPCG:  Solving for p, Initial residual = 0.0088909, Final residual = 9.76396e-07, No Iterations 91
time step continuity errors : sum local = 7.059935e-13, global = 1.707395e-15, cumulative = -1.775996e-10
DILUPBiCG:  Solving for omega, Initial residual = 0.0008478619, Final residual = 1.917444e-07, No Iterations 2
DILUPBiCG:  Solving for k, Initial residual = 0.9989247, Final residual = 8.004828e-07, No Iterations 3
ExecutionTime = 64.17 s  ClockTime = 107 s

Courant Number mean: 4.895893e-05 max: 0.3163863
deltaT = 0.001822917
Time = 0.006354167

inverseDistance : detected 2 mesh regions
    zone:0 nCells:1000000  voxels:(58 58 58) bb:(-5.000013 -5.000013 -5.000013) (1.500013 -0.6999873 5.000013)
    zone:1 nCells:222147  voxels:(58 58 58) bb:(-25.00002 -25.00002 -25.00002) (-14.99998 -14.99998 -14.99998)
Overset analysis : nCells : 1222147
    calculated   : 222147
    interpolated : 0 (interpolated from local:0  mixed local/remote:0  remote:0)
    hole         : 1000000

PIMPLE: iteration 1
DILUPBiCG:  Solving for Ux, Initial residual = 0.0003594139, Final residual = 2.946449e-07, No Iterations 2
DILUPBiCG:  Solving for Uy, Initial residual = 0.005167915, Final residual = 2.836897e-07, No Iterations 3
DILUPBiCG:  Solving for Uz, Initial residual = 0.005152773, Final residual = 3.207605e-07, No Iterations 3
DICPCG:  Solving for p, Initial residual = 0.07186841, Final residual = 0.0006192649, No Iterations 58
DICPCG:  Solving for p, Initial residual = 0.002939834, Final residual = 2.870263e-05, No Iterations 49
time step continuity errors : sum local = 2.652101e-11, global = -3.263189e-12, cumulative = -1.808628e-10
DICPCG:  Solving for p, Initial residual = 0.02682262, Final residual = 0.0002398842, No Iterations 62
DICPCG:  Solving for p, Initial residual = 0.001177642, Final residual = 9.41584e-07, No Iterations 80
time step continuity errors : sum local = 5.722431e-13, global = -3.02887e-14, cumulative = -1.808931e-10
DILUPBiCG:  Solving for omega, Initial residual = 0.0008663821, Final residual = 1.746562e-07, No Iterations 2
DILUPBiCG:  Solving for k, Initial residual = 0.4672316, Final residual = 3.794602e-07, No Iterations 3
ExecutionTime = 84.09 s  ClockTime = 141 s

Courant Number mean: 4.890566e-05 max: 0.3152793
deltaT = 0.001822917
Time = 0.008177083

inverseDistance : detected 2 mesh regions
    zone:0 nCells:1000000  voxels:(58 58 58) bb:(-5.000013 -5.000013 -5.000013) (1.500013 -0.6999873 5.000013)
    zone:1 nCells:222147  voxels:(58 58 58) bb:(-25.00002 -25.00002 -25.00002) (-14.99998 -14.99998 -14.99998)
Overset analysis : nCells : 1222147
    calculated   : 222147
    interpolated : 0 (interpolated from local:0  mixed local/remote:0  remote:0)
    hole         : 1000000

PIMPLE: iteration 1
DILUPBiCG:  Solving for Ux, Initial residual = 0.0002680587, Final residual = 1.994478e-07, No Iterations 2
DILUPBiCG:  Solving for Uy, Initial residual = 0.004080925, Final residual = 2.535947e-07, No Iterations 3
DILUPBiCG:  Solving for Uz, Initial residual = 0.004074474, Final residual = 1.982997e-07, No Iterations 3
DICPCG:  Solving for p, Initial residual = 0.06376846, Final residual = 0.0005783106, No Iterations 59
DICPCG:  Solving for p, Initial residual = 0.002143807, Final residual = 1.96123e-05, No Iterations 48
time step continuity errors : sum local = 1.61734e-11, global = -1.157471e-12, cumulative = -1.820506e-10
DICPCG:  Solving for p, Initial residual = 0.02821529, Final residual = 0.000261014, No Iterations 62
DICPCG:  Solving for p, Initial residual = 0.001217916, Final residual = 9.908286e-07, No Iterations 79
time step continuity errors : sum local = 5.225515e-13, global = 1.129833e-14, cumulative = -1.820393e-10
DILUPBiCG:  Solving for omega, Initial residual = 0.0008811952, Final residual = 1.501487e-07, No Iterations 2
DILUPBiCG:  Solving for k, Initial residual = 0.3016145, Final residual = 2.462937e-07, No Iterations 3
ExecutionTime = 103.38 s  ClockTime = 173 s

Courant Number mean: 4.885736e-05 max: 0.3142958
deltaT = 0.001822917
Time = 0.01

inverseDistance : detected 2 mesh regions
    zone:0 nCells:1000000  voxels:(58 58 58) bb:(-5.000013 -5.000013 -5.000013) (1.500013 -0.6999873 5.000013)
    zone:1 nCells:222147  voxels:(58 58 58) bb:(-25.00002 -25.00002 -25.00002) (-14.99998 -14.99998 -14.99998)
Overset analysis : nCells : 1222147
    calculated   : 222147
    interpolated : 0 (interpolated from local:0  mixed local/remote:0  remote:0)
    hole         : 1000000

PIMPLE: iteration 1
DILUPBiCG:  Solving for Ux, Initial residual = 0.0002146796, Final residual = 1.575005e-07, No Iterations 2
DILUPBiCG:  Solving for Uy, Initial residual = 0.003532963, Final residual = 2.03926e-07, No Iterations 3
DILUPBiCG:  Solving for Uz, Initial residual = 0.003527583, Final residual = 1.490727e-07, No Iterations 3
DICPCG:  Solving for p, Initial residual = 0.06008394, Final residual = 0.0005636713, No Iterations 60
DICPCG:  Solving for p, Initial residual = 0.001591154, Final residual = 1.493846e-05, No Iterations 29
time step continuity errors : sum local = 1.165628e-11, global = -2.99914e-12, cumulative = -1.850384e-10
DICPCG:  Solving for p, Initial residual = 0.02841674, Final residual = 0.0002708213, No Iterations 62
DICPCG:  Solving for p, Initial residual = 0.001179242, Final residual = 8.902667e-07, No Iterations 81
time step continuity errors : sum local = 4.334841e-13, global = -2.294455e-14, cumulative = -1.850614e-10
DILUPBiCG:  Solving for omega, Initial residual = 0.000893116, Final residual = 1.248469e-07, No Iterations 2
DILUPBiCG:  Solving for k, Initial residual = 0.228622, Final residual = 1.869475e-07, No Iterations 3
ExecutionTime = 128.96 s  ClockTime = 217 s

Courant Number mean: 4.881108e-05 max: 0.3133926
deltaT = 0.002
Time = 0.012

inverseDistance : detected 2 mesh regions
    zone:0 nCells:1000000  voxels:(58 58 58) bb:(-5.000013 -5.000013 -5.000013) (1.500013 -0.6999873 5.000013)
    zone:1 nCells:222147  voxels:(58 58 58) bb:(-25.00002 -25.00002 -25.00002) (-14.99998 -14.99998 -14.99998)
Overset analysis : nCells : 1222147
    calculated   : 222147
    interpolated : 0 (interpolated from local:0  mixed local/remote:0  remote:0)
    hole         : 1000000

PIMPLE: iteration 1
DILUPBiCG:  Solving for Ux, Initial residual = 0.000201814, Final residual = 1.640439e-07, No Iterations 2
DILUPBiCG:  Solving for Uy, Initial residual = 0.003454521, Final residual = 2.232584e-07, No Iterations 3
DILUPBiCG:  Solving for Uz, Initial residual = 0.003449404, Final residual = 1.461506e-07, No Iterations 3
DICPCG:  Solving for p, Initial residual = 0.05855699, Final residual = 0.000543938, No Iterations 60
DICPCG:  Solving for p, Initial residual = 0.001384335, Final residual = 1.341109e-05, No Iterations 29
time step continuity errors : sum local = 1.150843e-11, global = -2.819185e-12, cumulative = -1.878806e-10
DICPCG:  Solving for p, Initial residual = 0.02723515, Final residual = 0.0002541967, No Iterations 62
DICPCG:  Solving for p, Initial residual = 0.001078419, Final residual = 9.124318e-07, No Iterations 81
time step continuity errors : sum local = 4.926111e-13, global = -2.709061e-14, cumulative = -1.879076e-10
DILUPBiCG:  Solving for omega, Initial residual = 0.0009896315, Final residual = 1.282556e-07, No Iterations 2
DILUPBiCG:  Solving for k, Initial residual = 0.2087894, Final residual = 1.914824e-07, No Iterations 3
ExecutionTime = 148.19 s  ClockTime = 250 s

Courant Number mean: 5.349949e-05 max: 0.3428431
deltaT = 0.002666667
Time = 0.01466667

inverseDistance : detected 2 mesh regions
    zone:0 nCells:1000000  voxels:(58 58 58) bb:(-5.000013 -5.000013 -5.000013) (1.500013 -0.6999873 5.000013)
    zone:1 nCells:222147  voxels:(58 58 58) bb:(-25.00002 -25.00002 -25.00002) (-14.99998 -14.99998 -14.99998)
Overset analysis : nCells : 1222147
    calculated   : 222147
    interpolated : 0 (interpolated from local:0  mixed local/remote:0  remote:0)
    hole         : 1000000

PIMPLE: iteration 1
DILUPBiCG:  Solving for Ux, Initial residual = 0.0002314062, Final residual = 2.51804e-07, No Iterations 2
DILUPBiCG:  Solving for Uy, Initial residual = 0.003894383, Final residual = 3.834388e-07, No Iterations 3
DILUPBiCG:  Solving for Uz, Initial residual = 0.003890304, Final residual = 2.371492e-07, No Iterations 3
DICPCG:  Solving for p, Initial residual = 0.05450824, Final residual = 0.0004598174, No Iterations 60
DICPCG:  Solving for p, Initial residual = 0.001260922, Final residual = 1.244306e-05, No Iterations 26
time step continuity errors : sum local = 1.610301e-11, global = -3.086685e-12, cumulative = -1.909943e-10
DICPCG:  Solving for p, Initial residual = 0.02313373, Final residual = 0.0002288087, No Iterations 61
DICPCG:  Solving for p, Initial residual = 0.0009082649, Final residual = 9.666486e-07, No Iterations 80
time step continuity errors : sum local = 8.278068e-13, global = -1.486901e-14, cumulative = -1.910092e-10
DILUPBiCG:  Solving for omega, Initial residual = 0.001327469, Final residual = 1.96436e-07, No Iterations 2
DILUPBiCG:  Solving for k, Initial residual = 0.2486705, Final residual = 3.142136e-07, No Iterations 3
ExecutionTime = 167.29 s  ClockTime = 283 s

Courant Number mean: 7.12458e-05 max: 0.4555607
deltaT = 0.002666667
Time = 0.01733333

inverseDistance : detected 2 mesh regions
    zone:0 nCells:1000000  voxels:(58 58 58) bb:(-5.000013 -5.000013 -5.000013) (1.500013 -0.6999873 5.000013)
    zone:1 nCells:222147  voxels:(58 58 58) bb:(-25.00002 -25.00002 -25.00002) (-14.99998 -14.99998 -14.99998)
Overset analysis : nCells : 1222147
    calculated   : 222147
    interpolated : 0 (interpolated from local:0  mixed local/remote:0  remote:0)
    hole         : 1000000

PIMPLE: iteration 1
DILUPBiCG:  Solving for Ux, Initial residual = 0.0001941205, Final residual = 2.128521e-07, No Iterations 2
DILUPBiCG:  Solving for Uy, Initial residual = 0.003344967, Final residual = 3.362624e-07, No Iterations 3
DILUPBiCG:  Solving for Uz, Initial residual = 0.003341145, Final residual = 2.027388e-07, No Iterations 3
DICPCG:  Solving for p, Initial residual = 0.04119586, Final residual = 0.0003541937, No Iterations 61
DICPCG:  Solving for p, Initial residual = 0.0008657585, Final residual = 7.724114e-06, No Iterations 29
time step continuity errors : sum local = 9.846833e-12, global = -2.108514e-12, cumulative = -1.931177e-10
DICPCG:  Solving for p, Initial residual = 0.02262706, Final residual = 0.0001973623, No Iterations 62
DICPCG:  Solving for p, Initial residual = 0.0008170076, Final residual = 9.822098e-07, No Iterations 79
time step continuity errors : sum local = 8.311535e-13, global = -1.43159e-14, cumulative = -1.93132e-10
DILUPBiCG:  Solving for omega, Initial residual = 0.001339685, Final residual = 1.536116e-07, No Iterations 2
DILUPBiCG:  Solving for k, Initial residual = 0.2099779, Final residual = 2.60531e-07, No Iterations 3
ExecutionTime = 186.04 s  ClockTime = 321 s

Courant Number mean: 7.11584e-05 max: 0.4540972
deltaT = 0.002666667
Time = 0.02

inverseDistance : detected 2 mesh regions
    zone:0 nCells:1000000  voxels:(58 58 58) bb:(-5.000013 -5.000013 -5.000013) (1.500013 -0.6999873 5.000013)
    zone:1 nCells:222147  voxels:(58 58 58) bb:(-25.00002 -25.00002 -25.00002) (-14.99998 -14.99998 -14.99998)
Overset analysis : nCells : 1222147
    calculated   : 222147
    interpolated : 0 (interpolated from local:0  mixed local/remote:0  remote:0)
    hole         : 1000000

PIMPLE: iteration 1
DILUPBiCG:  Solving for Ux, Initial residual = 0.0001779504, Final residual = 1.916697e-07, No Iterations 2
DILUPBiCG:  Solving for Uy, Initial residual = 0.003180795, Final residual = 3.104541e-07, No Iterations 3
DILUPBiCG:  Solving for Uz, Initial residual = 0.00317647, Final residual = 2.23236e-07, No Iterations 3
DICPCG:  Solving for p, Initial residual = 0.03861314, Final residual = 0.0003500108, No Iterations 61
DICPCG:  Solving for p, Initial residual = 0.0007775909, Final residual = 7.509165e-06, No Iterations 30
time step continuity errors : sum local = 9.36682e-12, global = -2.323838e-12, cumulative = -1.954559e-10
DICPCG:  Solving for p, Initial residual = 0.02242496, Final residual = 0.0002031344, No Iterations 62
DICPCG:  Solving for p, Initial residual = 0.0008049673, Final residual = 9.072674e-07, No Iterations 80
time step continuity errors : sum local = 7.555414e-13, global = -2.487988e-14, cumulative = -1.954807e-10
DILUPBiCG:  Solving for omega, Initial residual = 0.001349579, Final residual = 1.238214e-07, No Iterations 2
DILUPBiCG:  Solving for k, Initial residual = 0.1834264, Final residual = 2.235669e-07, No Iterations 3
ExecutionTime = 210.94 s  ClockTime = 370 s

Courant Number mean: 7.107085e-05 max: 0.4527342
deltaT = 0.003333333
Time = 0.02333333

inverseDistance : detected 2 mesh regions
    zone:0 nCells:1000000  voxels:(58 58 58) bb:(-5.000013 -5.000013 -5.000013) (1.500013 -0.6999873 5.000013)
    zone:1 nCells:222147  voxels:(58 58 58) bb:(-25.00002 -25.00002 -25.00002) (-14.99998 -14.99998 -14.99998)
Overset analysis : nCells : 1222147
    calculated   : 222147
    interpolated : 0 (interpolated from local:0  mixed local/remote:0  remote:0)
    hole         : 1000000

PIMPLE: iteration 1
DILUPBiCG:  Solving for Ux, Initial residual = 0.0002040207, Final residual = 2.60335e-07, No Iterations 2
DILUPBiCG:  Solving for Uy, Initial residual = 0.003595265, Final residual = 4.783576e-07, No Iterations 3
DILUPBiCG:  Solving for Uz, Initial residual = 0.003589972, Final residual = 3.281619e-07, No Iterations 3
DICPCG:  Solving for p, Initial residual = 0.03632172, Final residual = 0.0002896291, No Iterations 61
DICPCG:  Solving for p, Initial residual = 0.0007235456, Final residual = 6.821629e-06, No Iterations 29
time step continuity errors : sum local = 1.191452e-11, global = -2.634955e-12, cumulative = -1.981157e-10
DICPCG:  Solving for p, Initial residual = 0.01925959, Final residual = 0.0001686012, No Iterations 62
DICPCG:  Solving for p, Initial residual = 0.0006481454, Final residual = 8.767425e-07, No Iterations 76
time step continuity errors : sum local = 1.063041e-12, global = -5.787149e-15, cumulative = -1.981215e-10
DILUPBiCG:  Solving for omega, Initial residual = 0.001691452, Final residual = 1.652206e-07, No Iterations 2
DILUPBiCG:  Solving for k, Initial residual = 0.2126073, Final residual = 3.097766e-07, No Iterations 3
ExecutionTime = 229.74 s  ClockTime = 408 s

Courant Number mean: 8.87109e-05 max: 0.5639868
deltaT = 0.003333333
Time = 0.02666667

inverseDistance : detected 2 mesh regions
    zone:0 nCells:1000000  voxels:(58 58 58) bb:(-5.000013 -5.000013 -5.000013) (1.500013 -0.6999873 5.000013)
    zone:1 nCells:222147  voxels:(58 58 58) bb:(-25.00002 -25.00002 -25.00002) (-14.99998 -14.99998 -14.99998)
Overset analysis : nCells : 1222147
    calculated   : 222147
    interpolated : 0 (interpolated from local:0  mixed local/remote:0  remote:0)
    hole         : 1000000

PIMPLE: iteration 1
DILUPBiCG:  Solving for Ux, Initial residual = 0.0001799304, Final residual = 2.291278e-07, No Iterations 2
DILUPBiCG:  Solving for Uy, Initial residual = 0.003255223, Final residual = 4.40363e-07, No Iterations 3
DILUPBiCG:  Solving for Uz, Initial residual = 0.003249572, Final residual = 4.59064e-07, No Iterations 3
DICPCG:  Solving for p, Initial residual = 0.03047249, Final residual = 0.0002868017, No Iterations 61
DICPCG:  Solving for p, Initial residual = 0.0005919693, Final residual = 5.881404e-06, No Iterations 32
time step continuity errors : sum local = 1.01079e-11, global = -2.706954e-12, cumulative = -2.008284e-10
DICPCG:  Solving for p, Initial residual = 0.0190507, Final residual = 0.0001706919, No Iterations 62
DICPCG:  Solving for p, Initial residual = 0.0006316244, Final residual = 9.214802e-07, No Iterations 76
time step continuity errors : sum local = 1.104273e-12, global = -5.332156e-16, cumulative = -2.00829e-10
DILUPBiCG:  Solving for omega, Initial residual = 0.001700856, Final residual = 1.407644e-07, No Iterations 2
DILUPBiCG:  Solving for k, Initial residual = 0.1901687, Final residual = 2.69752e-07, No Iterations 3
ExecutionTime = 248.18 s  ClockTime = 440 s

Courant Number mean: 8.858346e-05 max: 0.5621968
deltaT = 0.003333333
Time = 0.03

inverseDistance : detected 2 mesh regions
    zone:0 nCells:1000000  voxels:(58 58 58) bb:(-5.000013 -5.000013 -5.000013) (1.500013 -0.6999873 5.000013)
    zone:1 nCells:222147  voxels:(58 58 58) bb:(-25.00002 -25.00002 -25.00002) (-14.99998 -14.99998 -14.99998)
Overset analysis : nCells : 1222147
    calculated   : 222147
    interpolated : 0 (interpolated from local:0  mixed local/remote:0  remote:0)
    hole         : 1000000

PIMPLE: iteration 1
DILUPBiCG:  Solving for Ux, Initial residual = 0.0001665942, Final residual = 2.070242e-07, No Iterations 2
DILUPBiCG:  Solving for Uy, Initial residual = 0.003127569, Final residual = 4.137706e-07, No Iterations 3
DILUPBiCG:  Solving for Uz, Initial residual = 0.003121964, Final residual = 6.381261e-07, No Iterations 3
DICPCG:  Solving for p, Initial residual = 0.02934102, Final residual = 0.0002866217, No Iterations 61
DICPCG:  Solving for p, Initial residual = 0.0005669977, Final residual = 5.302625e-06, No Iterations 51
time step continuity errors : sum local = 8.943918e-12, global = -1.232349e-12, cumulative = -2.020613e-10
DICPCG:  Solving for p, Initial residual = 0.01894381, Final residual = 0.0001745523, No Iterations 62
DICPCG:  Solving for p, Initial residual = 0.0006272701, Final residual = 9.128112e-07, No Iterations 76
time step continuity errors : sum local = 1.076273e-12, global = 1.061214e-14, cumulative = -2.020507e-10
DILUPBiCG:  Solving for omega, Initial residual = 0.001708451, Final residual = 1.248771e-07, No Iterations 2
DILUPBiCG:  Solving for k, Initial residual = 0.1729425, Final residual = 2.391403e-07, No Iterations 3
ExecutionTime = 274.77 s  ClockTime = 483 s

Courant Number mean: 8.845661e-05 max: 0.5605432
deltaT = 0.003333333
Time = 0.03333333

inverseDistance : detected 2 mesh regions
    zone:0 nCells:1000000  voxels:(58 58 58) bb:(-5.000013 -5.000013 -5.000013) (1.500013 -0.6999873 5.000013)
    zone:1 nCells:222147  voxels:(58 58 58) bb:(-25.00002 -25.00002 -25.00002) (-14.99998 -14.99998 -14.99998)
Overset analysis : nCells : 1222147
    calculated   : 222147
    interpolated : 0 (interpolated from local:0  mixed local/remote:0  remote:0)
    hole         : 1000000

PIMPLE: iteration 1
DILUPBiCG:  Solving for Ux, Initial residual = 0.000154394, Final residual = 1.878759e-07, No Iterations 2
DILUPBiCG:  Solving for Uy, Initial residual = 0.003005323, Final residual = 3.898333e-07, No Iterations 3
DILUPBiCG:  Solving for Uz, Initial residual = 0.002999575, Final residual = 9.506779e-07, No Iterations 3
DICPCG:  Solving for p, Initial residual = 0.02860297, Final residual = 0.0002440974, No Iterations 62
DICPCG:  Solving for p, Initial residual = 0.0005225383, Final residual = 5.0316e-06, No Iterations 30
time step continuity errors : sum local = 8.329601e-12, global = -2.230788e-12, cumulative = -2.042815e-10
DICPCG:  Solving for p, Initial residual = 0.01886498, Final residual = 0.0001774575, No Iterations 62
DICPCG:  Solving for p, Initial residual = 0.0006278963, Final residual = 9.646403e-07, No Iterations 77
time step continuity errors : sum local = 1.116562e-12, global = 1.00999e-14, cumulative = -2.042714e-10
DILUPBiCG:  Solving for omega, Initial residual = 0.001714548, Final residual = 1.141686e-07, No Iterations 2
DILUPBiCG:  Solving for k, Initial residual = 0.1592379, Final residual = 2.149271e-07, No Iterations 3
ExecutionTime = 292.62 s  ClockTime = 514 s

Courant Number mean: 8.833076e-05 max: 0.5590139
deltaT = 0.003333333
Time = 0.03666667

inverseDistance : detected 2 mesh regions
    zone:0 nCells:1000000  voxels:(58 58 58) bb:(-5.000013 -5.000013 -5.000013) (1.500013 -0.6999873 5.000013)
    zone:1 nCells:222147  voxels:(58 58 58) bb:(-25.00002 -25.00002 -25.00002) (-14.99998 -14.99998 -14.99998)
Overset analysis : nCells : 1222147
    calculated   : 222147
    interpolated : 0 (interpolated from local:0  mixed local/remote:0  remote:0)
    hole         : 1000000

PIMPLE: iteration 1
DILUPBiCG:  Solving for Ux, Initial residual = 0.0001434672, Final residual = 1.713029e-07, No Iterations 2
DILUPBiCG:  Solving for Uy, Initial residual = 0.002887199, Final residual = 3.67951e-07, No Iterations 3
DILUPBiCG:  Solving for Uz, Initial residual = 0.002880706, Final residual = 5.187298e-08, No Iterations 4
DICPCG:  Solving for p, Initial residual = 0.02806301, Final residual = 0.0002490192, No Iterations 62
DICPCG:  Solving for p, Initial residual = 0.0005134661, Final residual = 4.863214e-06, No Iterations 51
time step continuity errors : sum local = 7.905417e-12, global = -1.034935e-12, cumulative = -2.053063e-10
DICPCG:  Solving for p, Initial residual = 0.01882962, Final residual = 0.0001813286, No Iterations 62
DICPCG:  Solving for p, Initial residual = 0.0006276224, Final residual = 9.486137e-07, No Iterations 77
time step continuity errors : sum local = 1.077688e-12, global = 1.895374e-14, cumulative = -2.052874e-10
DILUPBiCG:  Solving for omega, Initial residual = 0.001719411, Final residual = 1.066197e-07, No Iterations 2
DILUPBiCG:  Solving for k, Initial residual = 0.1480304, Final residual = 1.952705e-07, No Iterations 3
ExecutionTime = 311.65 s  ClockTime = 545 s

Courant Number mean: 8.820611e-05 max: 0.5575979
deltaT = 0.003333333
Time = 0.04

inverseDistance : detected 2 mesh regions
    zone:0 nCells:1000000  voxels:(58 58 58) bb:(-5.000013 -5.000013 -5.000013) (1.500013 -0.6999873 5.000013)
    zone:1 nCells:222147  voxels:(58 58 58) bb:(-25.00002 -25.00002 -25.00002) (-14.99998 -14.99998 -14.99998)
Overset analysis : nCells : 1222147
    calculated   : 222147
    interpolated : 0 (interpolated from local:0  mixed local/remote:0  remote:0)
    hole         : 1000000

PIMPLE: iteration 1
DILUPBiCG:  Solving for Ux, Initial residual = 0.000133651, Final residual = 1.568993e-07, No Iterations 2
DILUPBiCG:  Solving for Uy, Initial residual = 0.002777672, Final residual = 3.482445e-07, No Iterations 3
DILUPBiCG:  Solving for Uz, Initial residual = 0.002770382, Final residual = 4.607108e-08, No Iterations 4
DICPCG:  Solving for p, Initial residual = 0.02780081, Final residual = 0.0002544045, No Iterations 62
DICPCG:  Solving for p, Initial residual = 0.0005069058, Final residual = 4.443503e-06, No Iterations 52
time step continuity errors : sum local = 7.094363e-12, global = -9.403123e-13, cumulative = -2.062277e-10
DICPCG:  Solving for p, Initial residual = 0.0188809, Final residual = 0.0001851783, No Iterations 62
DICPCG:  Solving for p, Initial residual = 0.0006288373, Final residual = 9.693781e-07, No Iterations 77
time step continuity errors : sum local = 1.081003e-12, global = 2.54948e-14, cumulative = -2.062022e-10
DILUPBiCG:  Solving for omega, Initial residual = 0.001723237, Final residual = 1.010053e-07, No Iterations 2
DILUPBiCG:  Solving for k, Initial residual = 0.1386636, Final residual = 1.789772e-07, No Iterations 3
ExecutionTime = 340.34 s  ClockTime = 590 s

Courant Number mean: 8.808272e-05 max: 0.5562836
deltaT = 0.003333333
Time = 0.04333333

inverseDistance : detected 2 mesh regions
    zone:0 nCells:1000000  voxels:(58 58 58) bb:(-5.000013 -5.000013 -5.000013) (1.500013 -0.6999873 5.000013)
    zone:1 nCells:222147  voxels:(58 58 58) bb:(-25.00002 -25.00002 -25.00002) (-14.99998 -14.99998 -14.99998)
Overset analysis : nCells : 1222147
    calculated   : 222147
    interpolated : 0 (interpolated from local:0  mixed local/remote:0  remote:0)
    hole         : 1000000

PIMPLE: iteration 1
DILUPBiCG:  Solving for Ux, Initial residual = 0.0001249138, Final residual = 1.44389e-07, No Iterations 2
DILUPBiCG:  Solving for Uy, Initial residual = 0.002674386, Final residual = 3.304141e-07, No Iterations 3
DILUPBiCG:  Solving for Uz, Initial residual = 0.002666088, Final residual = 4.140877e-08, No Iterations 4
DICPCG:  Solving for p, Initial residual = 0.0277223, Final residual = 0.0002596369, No Iterations 62
DICPCG:  Solving for p, Initial residual = 0.0005043562, Final residual = 4.760132e-06, No Iterations 52
time step continuity errors : sum local = 7.457603e-12, global = -9.827214e-13, cumulative = -2.071849e-10
DICPCG:  Solving for p, Initial residual = 0.01899673, Final residual = 0.0001680203, No Iterations 63
DICPCG:  Solving for p, Initial residual = 0.0006049052, Final residual = 9.791797e-07, No Iterations 76
time step continuity errors : sum local = 1.069639e-12, global = 1.084443e-14, cumulative = -2.071741e-10
DILUPBiCG:  Solving for omega, Initial residual = 0.001726174, Final residual = 9.658642e-08, No Iterations 2
DILUPBiCG:  Solving for k, Initial residual = 0.1306962, Final residual = 1.652352e-07, No Iterations 3
ExecutionTime = 361.5 s  ClockTime = 622 s

Courant Number mean: 8.796083e-05 max: 0.5550628
deltaT = 0.003333333
Time = 0.04666667

inverseDistance : detected 2 mesh regions
    zone:0 nCells:1000000  voxels:(58 58 58) bb:(-5.000013 -5.000013 -5.000013) (1.500013 -0.6999873 5.000013)
    zone:1 nCells:222147  voxels:(58 58 58) bb:(-25.00002 -25.00002 -25.00002) (-14.99998 -14.99998 -14.99998)
Overset analysis : nCells : 1222147
    calculated   : 222147
    interpolated : 0 (interpolated from local:0  mixed local/remote:0  remote:0)
    hole         : 1000000

PIMPLE: iteration 1
DILUPBiCG:  Solving for Ux, Initial residual = 0.0001169909, Final residual = 1.333534e-07, No Iterations 2
DILUPBiCG:  Solving for Uy, Initial residual = 0.002576251, Final residual = 3.141412e-07, No Iterations 3
DILUPBiCG:  Solving for Uz, Initial residual = 0.002567253, Final residual = 3.759e-08, No Iterations 4
DICPCG:  Solving for p, Initial residual = 0.0277608, Final residual = 0.0002648452, No Iterations 62
DICPCG:  Solving for p, Initial residual = 0.0005008935, Final residual = 4.998527e-06, No Iterations 52
time step continuity errors : sum local = 7.694104e-12, global = -1.017705e-12, cumulative = -2.081918e-10
DICPCG:  Solving for p, Initial residual = 0.01916355, Final residual = 0.0001721587, No Iterations 63
DICPCG:  Solving for p, Initial residual = 0.0006089829, Final residual = 9.079415e-07, No Iterations 77
time step continuity errors : sum local = 9.730425e-13, global = 1.457022e-14, cumulative = -2.081772e-10
DILUPBiCG:  Solving for omega, Initial residual = 0.001728338, Final residual = 9.291586e-08, No Iterations 2
DILUPBiCG:  Solving for k, Initial residual = 0.1238198, Final residual = 1.534792e-07, No Iterations 3
ExecutionTime = 380.49 s  ClockTime = 654 s

Courant Number mean: 8.784035e-05 max: 0.5539269
deltaT = 0.003333333
Time = 0.05

inverseDistance : detected 2 mesh regions
    zone:0 nCells:1000000  voxels:(58 58 58) bb:(-5.000013 -5.000013 -5.000013) (1.500013 -0.6999873 5.000013)
    zone:1 nCells:222147  voxels:(58 58 58) bb:(-25.00002 -25.00002 -25.00002) (-14.99998 -14.99998 -14.99998)
Overset analysis : nCells : 1222147
    calculated   : 222147
    interpolated : 0 (interpolated from local:0  mixed local/remote:0  remote:0)
    hole         : 1000000

PIMPLE: iteration 1
DILUPBiCG:  Solving for Ux, Initial residual = 0.0001099038, Final residual = 1.236523e-07, No Iterations 2
DILUPBiCG:  Solving for Uy, Initial residual = 0.002485573, Final residual = 2.996294e-07, No Iterations 3
DILUPBiCG:  Solving for Uz, Initial residual = 0.002476197, Final residual = 3.435428e-08, No Iterations 4
DICPCG:  Solving for p, Initial residual = 0.02791563, Final residual = 0.0002701898, No Iterations 62
DICPCG:  Solving for p, Initial residual = 0.0004992628, Final residual = 4.775908e-06, No Iterations 53
time step continuity errors : sum local = 7.226297e-12, global = -9.678067e-13, cumulative = -2.09145e-10
DICPCG:  Solving for p, Initial residual = 0.01925688, Final residual = 0.0001764878, No Iterations 63
DICPCG:  Solving for p, Initial residual = 0.0006155164, Final residual = 9.220405e-07, No Iterations 77
time step continuity errors : sum local = 9.674419e-13, global = 1.128598e-14, cumulative = -2.091337e-10
DILUPBiCG:  Solving for omega, Initial residual = 0.001729822, Final residual = 8.972271e-08, No Iterations 2
DILUPBiCG:  Solving for k, Initial residual = 0.1178122, Final residual = 1.433044e-07, No Iterations 3
ExecutionTime = 406.3 s  ClockTime = 698 s

Courant Number mean: 8.77213e-05 max: 0.5528675
deltaT = 0.003333333
Time = 0.05333333

inverseDistance : detected 2 mesh regions
    zone:0 nCells:1000000  voxels:(58 58 58) bb:(-5.000013 -5.000013 -5.000013) (1.500013 -0.6999873 5.000013)
    zone:1 nCells:222147  voxels:(58 58 58) bb:(-25.00002 -25.00002 -25.00002) (-14.99998 -14.99998 -14.99998)
Overset analysis : nCells : 1222147
    calculated   : 222147
    interpolated : 0 (interpolated from local:0  mixed local/remote:0  remote:0)
    hole         : 1000000

PIMPLE: iteration 1
DILUPBiCG:  Solving for Ux, Initial residual = 0.0001034909, Final residual = 1.149926e-07, No Iterations 2
DILUPBiCG:  Solving for Uy, Initial residual = 0.002397262, Final residual = 2.847154e-07, No Iterations 3
DILUPBiCG:  Solving for Uz, Initial residual = 0.002387675, Final residual = 3.162882e-08, No Iterations 4
DICPCG:  Solving for p, Initial residual = 0.02794855, Final residual = 0.0002759013, No Iterations 62
DICPCG:  Solving for p, Initial residual = 0.0004975266, Final residual = 4.903649e-06, No Iterations 53
time step continuity errors : sum local = 7.304313e-12, global = -9.941308e-13, cumulative = -2.101279e-10
DICPCG:  Solving for p, Initial residual = 0.01935343, Final residual = 0.0001807043, No Iterations 63
DICPCG:  Solving for p, Initial residual = 0.000621716, Final residual = 9.529392e-07, No Iterations 77
time step continuity errors : sum local = 9.803593e-13, global = 7.34329e-15, cumulative = -2.101205e-10
DILUPBiCG:  Solving for omega, Initial residual = 0.0017307, Final residual = 8.683835e-08, No Iterations 2
DILUPBiCG:  Solving for k, Initial residual = 0.1125088, Final residual = 1.343946e-07, No Iterations 3
ExecutionTime = 425.62 s  ClockTime = 731 s

Courant Number mean: 8.760371e-05 max: 0.5518772
deltaT = 0.003333333
Time = 0.05666667

inverseDistance : detected 2 mesh regions
    zone:0 nCells:1000000  voxels:(58 58 58) bb:(-5.000013 -5.000013 -5.000013) (1.500013 -0.6999873 5.000013)
    zone:1 nCells:222147  voxels:(58 58 58) bb:(-25.00002 -25.00002 -25.00002) (-14.99998 -14.99998 -14.99998)
Overset analysis : nCells : 1222147
    calculated   : 222147
    interpolated : 0 (interpolated from local:0  mixed local/remote:0  remote:0)
    hole         : 1000000

PIMPLE: iteration 1
DILUPBiCG:  Solving for Ux, Initial residual = 9.76784e-05, Final residual = 1.072335e-07, No Iterations 2
DILUPBiCG:  Solving for Uy, Initial residual = 0.002319727, Final residual = 2.722059e-07, No Iterations 3
DILUPBiCG:  Solving for Uz, Initial residual = 0.002309474, Final residual = 9.825585e-07, No Iterations 3
DICPCG:  Solving for p, Initial residual = 0.02812046, Final residual = 0.0002565349, No Iterations 63
DICPCG:  Solving for p, Initial residual = 0.0004820381, Final residual = 4.142722e-06, No Iterations 53
time step continuity errors : sum local = 6.077899e-12, global = -9.400598e-13, cumulative = -2.110606e-10
DICPCG:  Solving for p, Initial residual = 0.01952319, Final residual = 0.0001838604, No Iterations 63
DICPCG:  Solving for p, Initial residual = 0.0006250452, Final residual = 9.891884e-07, No Iterations 77
time step continuity errors : sum local = 9.986658e-13, global = 9.521544e-16, cumulative = -2.110596e-10
DILUPBiCG:  Solving for omega, Initial residual = 0.001731032, Final residual = 8.415854e-08, No Iterations 2
DILUPBiCG:  Solving for k, Initial residual = 0.107785, Final residual = 1.265199e-07, No Iterations 3
ExecutionTime = 445.13 s  ClockTime = 762 s

Courant Number mean: 8.748762e-05 max: 0.5509501
deltaT = 0.003333333
Time = 0.06

inverseDistance : detected 2 mesh regions
    zone:0 nCells:1000000  voxels:(58 58 58) bb:(-5.000013 -5.000013 -5.000013) (1.500013 -0.6999873 5.000013)
    zone:1 nCells:222147  voxels:(58 58 58) bb:(-25.00002 -25.00002 -25.00002) (-14.99998 -14.99998 -14.99998)
Overset analysis : nCells : 1222147
    calculated   : 222147
    interpolated : 0 (interpolated from local:0  mixed local/remote:0  remote:0)
    hole         : 1000000

PIMPLE: iteration 1
DILUPBiCG:  Solving for Ux, Initial residual = 9.239198e-05, Final residual = 1.003367e-07, No Iterations 2
DILUPBiCG:  Solving for Uy, Initial residual = 0.0022488, Final residual = 2.612609e-07, No Iterations 3
DILUPBiCG:  Solving for Uz, Initial residual = 0.002237779, Final residual = 8.176574e-07, No Iterations 3
DICPCG:  Solving for p, Initial residual = 0.02844089, Final residual = 0.0002633367, No Iterations 63
DICPCG:  Solving for p, Initial residual = 0.0004823895, Final residual = 4.177127e-06, No Iterations 53
time step continuity errors : sum local = 6.036018e-12, global = -9.571036e-13, cumulative = -2.120167e-10
DICPCG:  Solving for p, Initial residual = 0.01965709, Final residual = 0.0001888257, No Iterations 63
DICPCG:  Solving for p, Initial residual = 0.0006321819, Final residual = 8.811361e-07, No Iterations 78
time step continuity errors : sum local = 8.714174e-13, global = -5.644173e-15, cumulative = -2.120224e-10
DILUPBiCG:  Solving for omega, Initial residual = 0.001730874, Final residual = 8.161927e-08, No Iterations 2
DILUPBiCG:  Solving for k, Initial residual = 0.1035446, Final residual = 1.19504e-07, No Iterations 3
ExecutionTime = 473.41 s  ClockTime = 808 s

Courant Number mean: 8.737299e-05 max: 0.5500804
deltaT = 0.003333333
Time = 0.06333333

inverseDistance : detected 2 mesh regions
    zone:0 nCells:1000000  voxels:(58 58 58) bb:(-5.000013 -5.000013 -5.000013) (1.500013 -0.6999873 5.000013)
    zone:1 nCells:222147  voxels:(58 58 58) bb:(-25.00002 -25.00002 -25.00002) (-14.99998 -14.99998 -14.99998)
Overset analysis : nCells : 1222147
    calculated   : 222147
    interpolated : 0 (interpolated from local:0  mixed local/remote:0  remote:0)
    hole         : 1000000

PIMPLE: iteration 1
DILUPBiCG:  Solving for Ux, Initial residual = 8.755777e-05, Final residual = 9.408343e-08, No Iterations 2
DILUPBiCG:  Solving for Uy, Initial residual = 0.002175556, Final residual = 2.495226e-07, No Iterations 3
DILUPBiCG:  Solving for Uz, Initial residual = 0.002163851, Final residual = 6.966612e-07, No Iterations 3
DICPCG:  Solving for p, Initial residual = 0.0286198, Final residual = 0.0002701286, No Iterations 63
DICPCG:  Solving for p, Initial residual = 0.0004806389, Final residual = 4.184104e-06, No Iterations 53
time step continuity errors : sum local = 5.967863e-12, global = -9.720489e-13, cumulative = -2.129944e-10
DICPCG:  Solving for p, Initial residual = 0.01978859, Final residual = 0.0001931082, No Iterations 63
DICPCG:  Solving for p, Initial residual = 0.0006376779, Final residual = 8.985004e-07, No Iterations 78
time step continuity errors : sum local = 8.726563e-13, global = -9.256116e-15, cumulative = -2.130037e-10
DILUPBiCG:  Solving for omega, Initial residual = 0.001730274, Final residual = 7.918022e-08, No Iterations 2
DILUPBiCG:  Solving for k, Initial residual = 0.09971215, Final residual = 1.132046e-07, No Iterations 3
ExecutionTime = 492.5 s  ClockTime = 840 s

Courant Number mean: 8.725972e-05 max: 0.549263
deltaT = 0.003333333
Time = 0.06666667

inverseDistance : detected 2 mesh regions
    zone:0 nCells:1000000  voxels:(58 58 58) bb:(-5.000013 -5.000013 -5.000013) (1.500013 -0.6999873 5.000013)
    zone:1 nCells:222147  voxels:(58 58 58) bb:(-25.00002 -25.00002 -25.00002) (-14.99998 -14.99998 -14.99998)
Overset analysis : nCells : 1222147
    calculated   : 222147
    interpolated : 0 (interpolated from local:0  mixed local/remote:0  remote:0)
    hole         : 1000000

PIMPLE: iteration 1
DILUPBiCG:  Solving for Ux, Initial residual = 8.31923e-05, Final residual = 8.847775e-08, No Iterations 2
DILUPBiCG:  Solving for Uy, Initial residual = 0.002110546, Final residual = 2.398921e-07, No Iterations 3
DILUPBiCG:  Solving for Uz, Initial residual = 0.00209812, Final residual = 6.137981e-07, No Iterations 3
DICPCG:  Solving for p, Initial residual = 0.02894978, Final residual = 0.0002764718, No Iterations 63
DICPCG:  Solving for p, Initial residual = 0.0004817898, Final residual = 4.246506e-06, No Iterations 53
time step continuity errors : sum local = 5.97452e-12, global = -9.800223e-13, cumulative = -2.139837e-10
DICPCG:  Solving for p, Initial residual = 0.02004621, Final residual = 0.0001973005, No Iterations 63
DICPCG:  Solving for p, Initial residual = 0.0006440538, Final residual = 9.190928e-07, No Iterations 78
time step continuity errors : sum local = 8.77178e-13, global = -1.332527e-14, cumulative = -2.13997e-10
DILUPBiCG:  Solving for omega, Initial residual = 0.001729273, Final residual = 7.681563e-08, No Iterations 2
DILUPBiCG:  Solving for k, Initial residual = 0.09622738, Final residual = 1.075117e-07, No Iterations 3
ExecutionTime = 512.82 s  ClockTime = 873 s

Courant Number mean: 8.714792e-05 max: 0.5484944
deltaT = 0.003333333
Time = 0.07

inverseDistance : detected 2 mesh regions
    zone:0 nCells:1000000  voxels:(58 58 58) bb:(-5.000013 -5.000013 -5.000013) (1.500013 -0.6999873 5.000013)
    zone:1 nCells:222147  voxels:(58 58 58) bb:(-25.00002 -25.00002 -25.00002) (-14.99998 -14.99998 -14.99998)
Overset analysis : nCells : 1222147
    calculated   : 222147
    interpolated : 0 (interpolated from local:0  mixed local/remote:0  remote:0)
    hole         : 1000000

PIMPLE: iteration 1
DILUPBiCG:  Solving for Ux, Initial residual = 7.917081e-05, Final residual = 8.342447e-08, No Iterations 2
DILUPBiCG:  Solving for Uy, Initial residual = 0.002049826, Final residual = 2.314989e-07, No Iterations 3
DILUPBiCG:  Solving for Uz, Initial residual = 0.002036611, Final residual = 5.516576e-07, No Iterations 3
DICPCG:  Solving for p, Initial residual = 0.02944649, Final residual = 0.000283722, No Iterations 63
DICPCG:  Solving for p, Initial residual = 0.0004854468, Final residual = 4.356275e-06, No Iterations 53
time step continuity errors : sum local = 6.038237e-12, global = -9.848277e-13, cumulative = -2.149819e-10
DICPCG:  Solving for p, Initial residual = 0.02028944, Final residual = 0.0002014846, No Iterations 63
DICPCG:  Solving for p, Initial residual = 0.0006527689, Final residual = 9.395151e-07, No Iterations 78
time step continuity errors : sum local = 8.775083e-13, global = -1.605579e-14, cumulative = -2.149979e-10
DILUPBiCG:  Solving for omega, Initial residual = 0.001727908, Final residual = 7.451043e-08, No Iterations 2
DILUPBiCG:  Solving for k, Initial residual = 0.09304176, Final residual = 1.023366e-07, No Iterations 3
ExecutionTime = 539.52 s  ClockTime = 918 s

Courant Number mean: 8.703769e-05 max: 0.5477727
deltaT = 0.003333333
Time = 0.07333333

inverseDistance : detected 2 mesh regions
    zone:0 nCells:1000000  voxels:(58 58 58) bb:(-5.000013 -5.000013 -5.000013) (1.500013 -0.6999873 5.000013)
    zone:1 nCells:222147  voxels:(58 58 58) bb:(-25.00002 -25.00002 -25.00002) (-14.99998 -14.99998 -14.99998)
Overset analysis : nCells : 1222147
    calculated   : 222147
    interpolated : 0 (interpolated from local:0  mixed local/remote:0  remote:0)
    hole         : 1000000

PIMPLE: iteration 1
DILUPBiCG:  Solving for Ux, Initial residual = 7.533672e-05, Final residual = 7.874046e-08, No Iterations 2
DILUPBiCG:  Solving for Uy, Initial residual = 0.001988159, Final residual = 2.220629e-07, No Iterations 3
DILUPBiCG:  Solving for Uz, Initial residual = 0.001974326, Final residual = 4.966567e-07, No Iterations 3
DICPCG:  Solving for p, Initial residual = 0.02988258, Final residual = 0.0002911856, No Iterations 63
DICPCG:  Solving for p, Initial residual = 0.0004839813, Final residual = 4.366952e-06, No Iterations 53
time step continuity errors : sum local = 5.983595e-12, global = -9.898622e-13, cumulative = -2.159878e-10
DICPCG:  Solving for p, Initial residual = 0.02052223, Final residual = 0.0002047452, No Iterations 63
DICPCG:  Solving for p, Initial residual = 0.0006587526, Final residual = 9.603309e-07, No Iterations 78
time step continuity errors : sum local = 8.81228e-13, global = -1.913726e-14, cumulative = -2.160069e-10
DILUPBiCG:  Solving for omega, Initial residual = 0.00172621, Final residual = 7.224989e-08, No Iterations 2
DILUPBiCG:  Solving for k, Initial residual = 0.09011559, Final residual = 9.76072e-08, No Iterations 3
ExecutionTime = 559.86 s  ClockTime = 950 s

Courant Number mean: 8.692883e-05 max: 0.5470919
deltaT = 0.003333333
Time = 0.07666667

inverseDistance : detected 2 mesh regions
    zone:0 nCells:1000000  voxels:(58 58 58) bb:(-5.000013 -5.000013 -5.000013) (1.500013 -0.6999873 5.000013)
    zone:1 nCells:222147  voxels:(58 58 58) bb:(-25.00002 -25.00002 -25.00002) (-14.99998 -14.99998 -14.99998)
Overset analysis : nCells : 1222147
    calculated   : 222147
    interpolated : 0 (interpolated from local:0  mixed local/remote:0  remote:0)
    hole         : 1000000

PIMPLE: iteration 1
DILUPBiCG:  Solving for Ux, Initial residual = 7.192403e-05, Final residual = 7.452617e-08, No Iterations 2
DILUPBiCG:  Solving for Uy, Initial residual = 0.001934905, Final residual = 2.144635e-07, No Iterations 3
DILUPBiCG:  Solving for Uz, Initial residual = 0.001920325, Final residual = 4.562799e-07, No Iterations 3
DICPCG:  Solving for p, Initial residual = 0.03037645, Final residual = 0.0002975345, No Iterations 63
DICPCG:  Solving for p, Initial residual = 0.000484514, Final residual = 4.415195e-06, No Iterations 53
time step continuity errors : sum local = 5.981217e-12, global = -9.956873e-13, cumulative = -2.170026e-10
DICPCG:  Solving for p, Initial residual = 0.02075691, Final residual = 0.0001934167, No Iterations 64
DICPCG:  Solving for p, Initial residual = 0.0006468741, Final residual = 8.659514e-07, No Iterations 79
time step continuity errors : sum local = 7.801882e-13, global = -2.258018e-14, cumulative = -2.170252e-10
DILUPBiCG:  Solving for omega, Initial residual = 0.00172421, Final residual = 7.002465e-08, No Iterations 2
DILUPBiCG:  Solving for k, Initial residual = 0.08741612, Final residual = 9.326481e-08, No Iterations 3
ExecutionTime = 580.35 s  ClockTime = 982 s

Courant Number mean: 8.682133e-05 max: 0.5464495
deltaT = 0.003333333
Time = 0.08

inverseDistance : detected 2 mesh regions
    zone:0 nCells:1000000  voxels:(58 58 58) bb:(-5.000013 -5.000013 -5.000013) (1.500013 -0.6999873 5.000013)
    zone:1 nCells:222147  voxels:(58 58 58) bb:(-25.00002 -25.00002 -25.00002) (-14.99998 -14.99998 -14.99998)
Overset analysis : nCells : 1222147
    calculated   : 222147
    interpolated : 0 (interpolated from local:0  mixed local/remote:0  remote:0)
    hole         : 1000000

PIMPLE: iteration 1
DILUPBiCG:  Solving for Ux, Initial residual = 6.876265e-05, Final residual = 7.065515e-08, No Iterations 2
DILUPBiCG:  Solving for Uy, Initial residual = 0.001883212, Final residual = 2.068992e-07, No Iterations 3
DILUPBiCG:  Solving for Uz, Initial residual = 0.001868068, Final residual = 4.212233e-07, No Iterations 3
DICPCG:  Solving for p, Initial residual = 0.0308526, Final residual = 0.0003042264, No Iterations 63
DICPCG:  Solving for p, Initial residual = 0.000483812, Final residual = 4.435218e-06, No Iterations 53
time step continuity errors : sum local = 5.948322e-12, global = -1.000524e-12, cumulative = -2.180257e-10
DICPCG:  Solving for p, Initial residual = 0.02091868, Final residual = 0.0001945257, No Iterations 64
DICPCG:  Solving for p, Initial residual = 0.0006506856, Final residual = 9.04605e-07, No Iterations 79
time step continuity errors : sum local = 8.004911e-13, global = -1.882858e-14, cumulative = -2.180445e-10
DILUPBiCG:  Solving for omega, Initial residual = 0.001721933, Final residual = 6.782783e-08, No Iterations 2
DILUPBiCG:  Solving for k, Initial residual = 0.08491603, Final residual = 8.926093e-08, No Iterations 3
ExecutionTime = 606.18 s  ClockTime = 1026 s

Courant Number mean: 8.67151e-05 max: 0.5458404
deltaT = 0.003333333
Time = 0.08333333

inverseDistance : detected 2 mesh regions
    zone:0 nCells:1000000  voxels:(58 58 58) bb:(-5.000013 -5.000013 -5.000013) (1.500013 -0.6999873 5.000013)
    zone:1 nCells:222147  voxels:(58 58 58) bb:(-25.00002 -25.00002 -25.00002) (-14.99998 -14.99998 -14.99998)
Overset analysis : nCells : 1222147
    calculated   : 222147
    interpolated : 0 (interpolated from local:0  mixed local/remote:0  remote:0)
    hole         : 1000000

PIMPLE: iteration 1
DILUPBiCG:  Solving for Ux, Initial residual = 6.584912e-05, Final residual = 6.70867e-08, No Iterations 2
DILUPBiCG:  Solving for Uy, Initial residual = 0.001831482, Final residual = 1.993068e-07, No Iterations 3
DILUPBiCG:  Solving for Uz, Initial residual = 0.001815992, Final residual = 3.901952e-07, No Iterations 3
DICPCG:  Solving for p, Initial residual = 0.03123619, Final residual = 0.0003109814, No Iterations 63
DICPCG:  Solving for p, Initial residual = 0.0004839701, Final residual = 4.431495e-06, No Iterations 53
time step continuity errors : sum local = 5.886884e-12, global = -9.970332e-13, cumulative = -2.190416e-10
DICPCG:  Solving for p, Initial residual = 0.02120789, Final residual = 0.0001979764, No Iterations 64
DICPCG:  Solving for p, Initial residual = 0.0006571171, Final residual = 9.147581e-07, No Iterations 79
time step continuity errors : sum local = 7.972863e-13, global = -1.712136e-14, cumulative = -2.190587e-10
DILUPBiCG:  Solving for omega, Initial residual = 0.001719404, Final residual = 6.565332e-08, No Iterations 2
DILUPBiCG:  Solving for k, Initial residual = 0.08259237, Final residual = 8.555482e-08, No Iterations 3
ExecutionTime = 626.1 s  ClockTime = 1058 s

Courant Number mean: 8.661023e-05 max: 0.5452622
deltaT = 0.003333333
Time = 0.08666667

inverseDistance : detected 2 mesh regions
    zone:0 nCells:1000000  voxels:(58 58 58) bb:(-5.000013 -5.000013 -5.000013) (1.500013 -0.6999873 5.000013)
    zone:1 nCells:222147  voxels:(58 58 58) bb:(-25.00002 -25.00002 -25.00002) (-14.99998 -14.99998 -14.99998)
Overset analysis : nCells : 1222147
    calculated   : 222147
    interpolated : 0 (interpolated from local:0  mixed local/remote:0  remote:0)
    hole         : 1000000

PIMPLE: iteration 1
DILUPBiCG:  Solving for Ux, Initial residual = 6.314282e-05, Final residual = 6.386011e-08, No Iterations 2
DILUPBiCG:  Solving for Uy, Initial residual = 0.001787337, Final residual = 1.939066e-07, No Iterations 3
DILUPBiCG:  Solving for Uz, Initial residual = 0.001771629, Final residual = 3.680382e-07, No Iterations 3
DICPCG:  Solving for p, Initial residual = 0.03191668, Final residual = 0.000316852, No Iterations 63
DICPCG:  Solving for p, Initial residual = 0.0004863624, Final residual = 4.513756e-06, No Iterations 53
time step continuity errors : sum local = 5.929311e-12, global = -9.979001e-13, cumulative = -2.200566e-10
DICPCG:  Solving for p, Initial residual = 0.02152622, Final residual = 0.0002012537, No Iterations 64
DICPCG:  Solving for p, Initial residual = 0.0006656846, Final residual = 9.230263e-07, No Iterations 79
time step continuity errors : sum local = 7.897472e-13, global = -1.54493e-14, cumulative = -2.20072e-10
DILUPBiCG:  Solving for omega, Initial residual = 0.001716646, Final residual = 6.349596e-08, No Iterations 2
DILUPBiCG:  Solving for k, Initial residual = 0.08042567, Final residual = 8.211268e-08, No Iterations 3
ExecutionTime = 645.96 s  ClockTime = 1090 s

Courant Number mean: 8.650674e-05 max: 0.5447133
deltaT = 0.003333333
Time = 0.09

inverseDistance : detected 2 mesh regions
    zone:0 nCells:1000000  voxels:(58 58 58) bb:(-5.000013 -5.000013 -5.000013) (1.500013 -0.6999873 5.000013)
    zone:1 nCells:222147  voxels:(58 58 58) bb:(-25.00002 -25.00002 -25.00002) (-14.99998 -14.99998 -14.99998)
Overset analysis : nCells : 1222147
    calculated   : 222147
    interpolated : 0 (interpolated from local:0  mixed local/remote:0  remote:0)
    hole         : 1000000

PIMPLE: iteration 1
DILUPBiCG:  Solving for Ux, Initial residual = 6.054909e-05, Final residual = 6.083819e-08, No Iterations 2
DILUPBiCG:  Solving for Uy, Initial residual = 0.001742717, Final residual = 1.880749e-07, No Iterations 3
DILUPBiCG:  Solving for Uz, Initial residual = 0.001726896, Final residual = 3.458913e-07, No Iterations 3
DICPCG:  Solving for p, Initial residual = 0.03258118, Final residual = 0.000323748, No Iterations 63
DICPCG:  Solving for p, Initial residual = 0.0004866517, Final residual = 4.524251e-06, No Iterations 53
time step continuity errors : sum local = 5.887835e-12, global = -9.977298e-13, cumulative = -2.210698e-10
DICPCG:  Solving for p, Initial residual = 0.02181669, Final residual = 0.0002041182, No Iterations 64
DICPCG:  Solving for p, Initial residual = 0.0006734088, Final residual = 9.459538e-07, No Iterations 79
time step continuity errors : sum local = 7.947936e-13, global = -1.305826e-14, cumulative = -2.210828e-10
DILUPBiCG:  Solving for omega, Initial residual = 0.001713678, Final residual = 6.135151e-08, No Iterations 2
DILUPBiCG:  Solving for k, Initial residual = 0.07839935, Final residual = 7.890576e-08, No Iterations 3
ExecutionTime = 673.44 s  ClockTime = 1134 s

Courant Number mean: 8.640457e-05 max: 0.5441907
deltaT = 0.003333333
Time = 0.09333333

inverseDistance : detected 2 mesh regions
    zone:0 nCells:1000000  voxels:(58 58 58) bb:(-5.000013 -5.000013 -5.000013) (1.500013 -0.6999873 5.000013)
    zone:1 nCells:222147  voxels:(58 58 58) bb:(-25.00002 -25.00002 -25.00002) (-14.99998 -14.99998 -14.99998)
Overset analysis : nCells : 1222147
    calculated   : 222147
    interpolated : 0 (interpolated from local:0  mixed local/remote:0  remote:0)
    hole         : 1000000

PIMPLE: iteration 1
DILUPBiCG:  Solving for Ux, Initial residual = 5.815645e-05, Final residual = 5.804448e-08, No Iterations 2
DILUPBiCG:  Solving for Uy, Initial residual = 0.001699906, Final residual = 1.824468e-07, No Iterations 3
DILUPBiCG:  Solving for Uz, Initial residual = 0.001683967, Final residual = 3.258446e-07, No Iterations 3
DICPCG:  Solving for p, Initial residual = 0.03322992, Final residual = 0.000331152, No Iterations 63
DICPCG:  Solving for p, Initial residual = 0.0004874034, Final residual = 4.531164e-06, No Iterations 53
time step continuity errors : sum local = 5.844433e-12, global = -9.914536e-13, cumulative = -2.220743e-10
DICPCG:  Solving for p, Initial residual = 0.02209653, Final residual = 0.0002067231, No Iterations 64
DICPCG:  Solving for p, Initial residual = 0.0006811635, Final residual = 9.542005e-07, No Iterations 79
time step continuity errors : sum local = 7.875363e-13, global = -1.111507e-14, cumulative = -2.220854e-10
DILUPBiCG:  Solving for omega, Initial residual = 0.001710518, Final residual = 5.92157e-08, No Iterations 2
DILUPBiCG:  Solving for k, Initial residual = 0.07649913, Final residual = 7.590949e-08, No Iterations 3
ExecutionTime = 694.11 s  ClockTime = 1167 s

Courant Number mean: 8.630375e-05 max: 0.5436925
deltaT = 0.003333333
Time = 0.09666667

inverseDistance : detected 2 mesh regions
    zone:0 nCells:1000000  voxels:(58 58 58) bb:(-5.000013 -5.000013 -5.000013) (1.500013 -0.6999873 5.000013)
    zone:1 nCells:222147  voxels:(58 58 58) bb:(-25.00002 -25.00002 -25.00002) (-14.99998 -14.99998 -14.99998)
Overset analysis : nCells : 1222147
    calculated   : 222147
    interpolated : 0 (interpolated from local:0  mixed local/remote:0  remote:0)
    hole         : 1000000

PIMPLE: iteration 1
DILUPBiCG:  Solving for Ux, Initial residual = 5.592225e-05, Final residual = 5.545213e-08, No Iterations 2
DILUPBiCG:  Solving for Uy, Initial residual = 0.00165937, Final residual = 1.773829e-07, No Iterations 3
DILUPBiCG:  Solving for Uz, Initial residual = 0.001643294, Final residual = 3.083927e-07, No Iterations 3
DICPCG:  Solving for p, Initial residual = 0.0338781, Final residual = 0.0003387411, No Iterations 63
DICPCG:  Solving for p, Initial residual = 0.0004874796, Final residual = 4.525653e-06, No Iterations 53
time step continuity errors : sum local = 5.792348e-12, global = -9.86437e-13, cumulative = -2.230718e-10
DICPCG:  Solving for p, Initial residual = 0.02243944, Final residual = 0.0002086775, No Iterations 64
DICPCG:  Solving for p, Initial residual = 0.0006870235, Final residual = 9.764455e-07, No Iterations 79
time step continuity errors : sum local = 7.938173e-13, global = -9.315815e-15, cumulative = -2.230811e-10
DILUPBiCG:  Solving for omega, Initial residual = 0.001707184, Final residual = 9.929054e-07, No Iterations 1
DILUPBiCG:  Solving for k, Initial residual = 0.07471265, Final residual = 7.303266e-08, No Iterations 3
ExecutionTime = 713.92 s  ClockTime = 1199 s

Courant Number mean: 8.620423e-05 max: 0.5432156
deltaT = 0.003333333
Time = 0.1

inverseDistance : detected 2 mesh regions
    zone:0 nCells:1000000  voxels:(58 58 58) bb:(-5.000013 -5.000013 -5.000013) (1.500013 -0.6999873 5.000013)
    zone:1 nCells:222147  voxels:(58 58 58) bb:(-25.00002 -25.00002 -25.00002) (-14.99998 -14.99998 -14.99998)
Overset analysis : nCells : 1222147
    calculated   : 222147
    interpolated : 0 (interpolated from local:0  mixed local/remote:0  remote:0)
    hole         : 1000000

PIMPLE: iteration 1
DILUPBiCG:  Solving for Ux, Initial residual = 5.388808e-05, Final residual = 5.315464e-08, No Iterations 2
DILUPBiCG:  Solving for Uy, Initial residual = 0.001622926, Final residual = 1.739668e-07, No Iterations 3
DILUPBiCG:  Solving for Uz, Initial residual = 0.001606909, Final residual = 2.962182e-07, No Iterations 3
DICPCG:  Solving for p, Initial residual = 0.03467764, Final residual = 0.0003457983, No Iterations 63
DICPCG:  Solving for p, Initial residual = 0.0004859103, Final residual = 4.526132e-06, No Iterations 53
time step continuity errors : sum local = 5.755924e-12, global = -9.926667e-13, cumulative = -2.240738e-10
DICPCG:  Solving for p, Initial residual = 0.02269149, Final residual = 0.0002109452, No Iterations 64
DICPCG:  Solving for p, Initial residual = 0.0006932295, Final residual = 9.856116e-07, No Iterations 79
time step continuity errors : sum local = 7.891544e-13, global = -6.962158e-15, cumulative = -2.240808e-10
DILUPBiCG:  Solving for omega, Initial residual = 0.001703829, Final residual = 9.720485e-07, No Iterations 1
DILUPBiCG:  Solving for k, Initial residual = 0.07302967, Final residual = 7.048875e-08, No Iterations 3
ExecutionTime = 740.11 s  ClockTime = 1244 s

Courant Number mean: 8.610581e-05 max: 0.542757
deltaT = 0.003333333
Time = 0.1033333

inverseDistance : detected 2 mesh regions
    zone:0 nCells:1000000  voxels:(58 58 58) bb:(-5.000013 -5.000013 -5.000013) (1.500013 -0.6999873 5.000013)
    zone:1 nCells:222147  voxels:(58 58 58) bb:(-25.00002 -25.00002 -25.00002) (-14.99998 -14.99998 -14.99998)
Overset analysis : nCells : 1222147
    calculated   : 222147
    interpolated : 0 (interpolated from local:0  mixed local/remote:0  remote:0)
    hole         : 1000000

PIMPLE: iteration 1
DILUPBiCG:  Solving for Ux, Initial residual = 5.202621e-05, Final residual = 5.097769e-08, No Iterations 2
DILUPBiCG:  Solving for Uy, Initial residual = 0.001585346, Final residual = 1.696281e-07, No Iterations 3
DILUPBiCG:  Solving for Uz, Initial residual = 0.001569546, Final residual = 2.822984e-07, No Iterations 3
DICPCG:  Solving for p, Initial residual = 0.03529008, Final residual = 0.0003523807, No Iterations 63
DICPCG:  Solving for p, Initial residual = 0.0004859392, Final residual = 4.519446e-06, No Iterations 53
time step continuity errors : sum local = 5.713191e-12, global = -9.829996e-13, cumulative = -2.250638e-10
DICPCG:  Solving for p, Initial residual = 0.02300254, Final residual = 0.0002131849, No Iterations 64
DICPCG:  Solving for p, Initial residual = 0.0006997416, Final residual = 8.835193e-07, No Iterations 80
time step continuity errors : sum local = 6.975665e-13, global = -1.069125e-14, cumulative = -2.250745e-10
DILUPBiCG:  Solving for omega, Initial residual = 0.001700315, Final residual = 9.521481e-07, No Iterations 1
DILUPBiCG:  Solving for k, Initial residual = 0.07144137, Final residual = 6.808247e-08, No Iterations 3
ExecutionTime = 761 s  ClockTime = 1277 s

Courant Number mean: 8.600848e-05 max: 0.5423156
deltaT = 0.003333333
Time = 0.1066667

inverseDistance : detected 2 mesh regions
    zone:0 nCells:1000000  voxels:(58 58 58) bb:(-5.000013 -5.000013 -5.000013) (1.500013 -0.6999873 5.000013)
    zone:1 nCells:222147  voxels:(58 58 58) bb:(-25.00002 -25.00002 -25.00002) (-14.99998 -14.99998 -14.99998)
Overset analysis : nCells : 1222147
    calculated   : 222147
    interpolated : 0 (interpolated from local:0  mixed local/remote:0  remote:0)
    hole         : 1000000

PIMPLE: iteration 1
DILUPBiCG:  Solving for Ux, Initial residual = 5.028984e-05, Final residual = 4.897917e-08, No Iterations 2
DILUPBiCG:  Solving for Uy, Initial residual = 0.001554599, Final residual = 1.665068e-07, No Iterations 3
DILUPBiCG:  Solving for Uz, Initial residual = 0.001538899, Final residual = 2.713365e-07, No Iterations 3
DICPCG:  Solving for p, Initial residual = 0.03607501, Final residual = 0.0003588285, No Iterations 63
DICPCG:  Solving for p, Initial residual = 0.0004871606, Final residual = 4.526909e-06, No Iterations 53
time step continuity errors : sum local = 5.684383e-12, global = -9.803861e-13, cumulative = -2.260549e-10
DICPCG:  Solving for p, Initial residual = 0.02334984, Final residual = 0.0002157297, No Iterations 64
DICPCG:  Solving for p, Initial residual = 0.0007083016, Final residual = 8.953875e-07, No Iterations 80
time step continuity errors : sum local = 6.958749e-13, global = -9.512673e-15, cumulative = -2.260644e-10
DILUPBiCG:  Solving for omega, Initial residual = 0.001696657, Final residual = 9.335168e-07, No Iterations 1
DILUPBiCG:  Solving for k, Initial residual = 0.06993929, Final residual = 6.580382e-08, No Iterations 3
ExecutionTime = 780.13 s  ClockTime = 1310 s

Courant Number mean: 8.591232e-05 max: 0.5418906
deltaT = 0.003333333
Time = 0.11

inverseDistance : detected 2 mesh regions
    zone:0 nCells:1000000  voxels:(58 58 58) bb:(-5.000013 -5.000013 -5.000013) (1.500013 -0.6999873 5.000013)
    zone:1 nCells:222147  voxels:(58 58 58) bb:(-25.00002 -25.00002 -25.00002) (-14.99998 -14.99998 -14.99998)
Overset analysis : nCells : 1222147
    calculated   : 222147
    interpolated : 0 (interpolated from local:0  mixed local/remote:0  remote:0)
    hole         : 1000000

PIMPLE: iteration 1
DILUPBiCG:  Solving for Ux, Initial residual = 4.860369e-05, Final residual = 4.708754e-08, No Iterations 2
DILUPBiCG:  Solving for Uy, Initial residual = 0.001524449, Final residual = 1.635027e-07, No Iterations 3
DILUPBiCG:  Solving for Uz, Initial residual = 0.00150871, Final residual = 2.604752e-07, No Iterations 3
DICPCG:  Solving for p, Initial residual = 0.03688363, Final residual = 0.0003658596, No Iterations 63
DICPCG:  Solving for p, Initial residual = 0.000488426, Final residual = 4.532233e-06, No Iterations 53
time step continuity errors : sum local = 5.652771e-12, global = -9.736349e-13, cumulative = -2.27038e-10
DICPCG:  Solving for p, Initial residual = 0.02374502, Final residual = 0.0002180953, No Iterations 64
DICPCG:  Solving for p, Initial residual = 0.0007166805, Final residual = 9.210805e-07, No Iterations 80
time step continuity errors : sum local = 7.049305e-13, global = -8.326594e-15, cumulative = -2.270463e-10
DILUPBiCG:  Solving for omega, Initial residual = 0.001692867, Final residual = 9.162265e-07, No Iterations 1
DILUPBiCG:  Solving for k, Initial residual = 0.06851599, Final residual = 6.36438e-08, No Iterations 3
ExecutionTime = 807.16 s  ClockTime = 1352 s

Courant Number mean: 8.581736e-05 max: 0.5414816
deltaT = 0.003333333
Time = 0.1133333

inverseDistance : detected 2 mesh regions
    zone:0 nCells:1000000  voxels:(58 58 58) bb:(-5.000013 -5.000013 -5.000013) (1.500013 -0.6999873 5.000013)
    zone:1 nCells:222147  voxels:(58 58 58) bb:(-25.00002 -25.00002 -25.00002) (-14.99998 -14.99998 -14.99998)
Overset analysis : nCells : 1222147
    calculated   : 222147
    interpolated : 0 (interpolated from local:0  mixed local/remote:0  remote:0)
    hole         : 1000000

PIMPLE: iteration 1
DILUPBiCG:  Solving for Ux, Initial residual = 4.699969e-05, Final residual = 4.530852e-08, No Iterations 2
DILUPBiCG:  Solving for Uy, Initial residual = 0.001497097, Final residual = 1.615518e-07, No Iterations 3
DILUPBiCG:  Solving for Uz, Initial residual = 0.001481206, Final residual = 2.514025e-07, No Iterations 3
DICPCG:  Solving for p, Initial residual = 0.03779419, Final residual = 0.0003732078, No Iterations 63
DICPCG:  Solving for p, Initial residual = 0.0004898883, Final residual = 4.531175e-06, No Iterations 53
time step continuity errors : sum local = 5.614951e-12, global = -9.694726e-13, cumulative = -2.280158e-10
DICPCG:  Solving for p, Initial residual = 0.02410049, Final residual = 0.0002205698, No Iterations 64
DICPCG:  Solving for p, Initial residual = 0.0007264456, Final residual = 9.44167e-07, No Iterations 80
time step continuity errors : sum local = 7.103629e-13, global = -7.010644e-15, cumulative = -2.280228e-10
DILUPBiCG:  Solving for omega, Initial residual = 0.001688956, Final residual = 9.002396e-07, No Iterations 1
DILUPBiCG:  Solving for k, Initial residual = 0.06716491, Final residual = 6.159374e-08, No Iterations 3
ExecutionTime = 825.65 s  ClockTime = 1383 s

Courant Number mean: 8.572365e-05 max: 0.5410878
deltaT = 0.003333333
Time = 0.1166667

inverseDistance : detected 2 mesh regions
    zone:0 nCells:1000000  voxels:(58 58 58) bb:(-5.000013 -5.000013 -5.000013) (1.500013 -0.6999873 5.000013)
    zone:1 nCells:222147  voxels:(58 58 58) bb:(-25.00002 -25.00002 -25.00002) (-14.99998 -14.99998 -14.99998)
Overset analysis : nCells : 1222147
    calculated   : 222147
    interpolated : 0 (interpolated from local:0  mixed local/remote:0  remote:0)
    hole         : 1000000

PIMPLE: iteration 1
DILUPBiCG:  Solving for Ux, Initial residual = 4.544464e-05, Final residual = 4.36099e-08, No Iterations 2
DILUPBiCG:  Solving for Uy, Initial residual = 0.00147035, Final residual = 1.592499e-07, No Iterations 3
DILUPBiCG:  Solving for Uz, Initial residual = 0.001454293, Final residual = 2.417346e-07, No Iterations 3
DICPCG:  Solving for p, Initial residual = 0.03868892, Final residual = 0.0003813649, No Iterations 63
DICPCG:  Solving for p, Initial residual = 0.0004884679, Final residual = 4.497885e-06, No Iterations 53
time step continuity errors : sum local = 5.5483e-12, global = -9.660192e-13, cumulative = -2.289888e-10
DICPCG:  Solving for p, Initial residual = 0.02440707, Final residual = 0.0002221684, No Iterations 64
DICPCG:  Solving for p, Initial residual = 0.0007335183, Final residual = 9.683842e-07, No Iterations 80
time step continuity errors : sum local = 7.177312e-13, global = -5.856619e-15, cumulative = -2.289947e-10
DILUPBiCG:  Solving for omega, Initial residual = 0.001684936, Final residual = 8.854748e-07, No Iterations 1
DILUPBiCG:  Solving for k, Initial residual = 0.06588019, Final residual = 5.96459e-08, No Iterations 3
ExecutionTime = 844.31 s  ClockTime = 1415 s

Courant Number mean: 8.563105e-05 max: 0.5407064
deltaT = 0.003333333
Time = 0.12

inverseDistance : detected 2 mesh regions
    zone:0 nCells:1000000  voxels:(58 58 58) bb:(-5.000013 -5.000013 -5.000013) (1.500013 -0.6999873 5.000013)
    zone:1 nCells:222147  voxels:(58 58 58) bb:(-25.00002 -25.00002 -25.00002) (-14.99998 -14.99998 -14.99998)
Overset analysis : nCells : 1222147
    calculated   : 222147
    interpolated : 0 (interpolated from local:0  mixed local/remote:0  remote:0)
    hole         : 1000000

PIMPLE: iteration 1
DILUPBiCG:  Solving for Ux, Initial residual = 4.404019e-05, Final residual = 4.202416e-08, No Iterations 2
DILUPBiCG:  Solving for Uy, Initial residual = 0.001445172, Final residual = 1.575729e-07, No Iterations 3
DILUPBiCG:  Solving for Uz, Initial residual = 0.001428991, Final residual = 2.33153e-07, No Iterations 3
DICPCG:  Solving for p, Initial residual = 0.03954765, Final residual = 0.0003866762, No Iterations 63
DICPCG:  Solving for p, Initial residual = 0.000488319, Final residual = 4.477115e-06, No Iterations 53
time step continuity errors : sum local = 5.495387e-12, global = -9.60939e-13, cumulative = -2.299556e-10
DICPCG:  Solving for p, Initial residual = 0.02475778, Final residual = 0.0002463748, No Iterations 63
DICPCG:  Solving for p, Initial residual = 0.0007761756, Final residual = 8.301364e-07, No Iterations 87
time step continuity errors : sum local = 6.063351e-13, global = -1.19624e-14, cumulative = -2.299676e-10
DILUPBiCG:  Solving for omega, Initial residual = 0.001680816, Final residual = 8.718337e-07, No Iterations 1
DILUPBiCG:  Solving for k, Initial residual = 0.06465666, Final residual = 5.779251e-08, No Iterations 3
ExecutionTime = 868.82 s  ClockTime = 1462 s

Courant Number mean: 8.553957e-05 max: 0.540337
deltaT = 0.003333333
Time = 0.1233333

inverseDistance : detected 2 mesh regions
    zone:0 nCells:1000000  voxels:(58 58 58) bb:(-5.000013 -5.000013 -5.000013) (1.500013 -0.6999873 5.000013)
    zone:1 nCells:222147  voxels:(58 58 58) bb:(-25.00002 -25.00002 -25.00002) (-14.99998 -14.99998 -14.99998)
Overset analysis : nCells : 1222147
    calculated   : 222147
    interpolated : 0 (interpolated from local:0  mixed local/remote:0  remote:0)
    hole         : 1000000

PIMPLE: iteration 1
DILUPBiCG:  Solving for Ux, Initial residual = 4.269508e-05, Final residual = 4.053391e-08, No Iterations 2
DILUPBiCG:  Solving for Uy, Initial residual = 0.001422062, Final residual = 1.566118e-07, No Iterations 3
DILUPBiCG:  Solving for Uz, Initial residual = 0.001405637, Final residual = 2.256594e-07, No Iterations 3
DICPCG:  Solving for p, Initial residual = 0.04048973, Final residual = 0.0003941684, No Iterations 63
DICPCG:  Solving for p, Initial residual = 0.0004893632, Final residual = 4.857164e-06, No Iterations 52
time step continuity errors : sum local = 5.930389e-12, global = -1.022312e-12, cumulative = -2.309899e-10
DICPCG:  Solving for p, Initial residual = 0.02518257, Final residual = 0.0002502846, No Iterations 63
DICPCG:  Solving for p, Initial residual = 0.000788592, Final residual = 8.496295e-07, No Iterations 87
time step continuity errors : sum local = 6.11364e-13, global = -1.402413e-14, cumulative = -2.310039e-10
DILUPBiCG:  Solving for omega, Initial residual = 0.001676605, Final residual = 8.592154e-07, No Iterations 1
DILUPBiCG:  Solving for k, Initial residual = 0.06348966, Final residual = 5.602699e-08, No Iterations 3
ExecutionTime = 888.3 s  ClockTime = 1504 s

Courant Number mean: 8.544925e-05 max: 0.5399803
deltaT = 0.003333333
Time = 0.1266667

inverseDistance : detected 2 mesh regions
    zone:0 nCells:1000000  voxels:(58 58 58) bb:(-5.000013 -5.000013 -5.000013) (1.500013 -0.6999873 5.000013)
    zone:1 nCells:222147  voxels:(58 58 58) bb:(-25.00002 -25.00002 -25.00002) (-14.99998 -14.99998 -14.99998)
Overset analysis : nCells : 1222147
    calculated   : 222147
    interpolated : 0 (interpolated from local:0  mixed local/remote:0  remote:0)
    hole         : 1000000

PIMPLE: iteration 1
DILUPBiCG:  Solving for Ux, Initial residual = 4.139526e-05, Final residual = 3.912796e-08, No Iterations 2
DILUPBiCG:  Solving for Uy, Initial residual = 0.001398339, Final residual = 1.571611e-07, No Iterations 3
DILUPBiCG:  Solving for Uz, Initial residual = 0.001381659, Final residual = 2.192979e-07, No Iterations 3
DICPCG:  Solving for p, Initial residual = 0.04155787, Final residual = 0.0004007686, No Iterations 63
DICPCG:  Solving for p, Initial residual = 0.0004876146, Final residual = 4.787123e-06, No Iterations 52
time step continuity errors : sum local = 5.826837e-12, global = -1.017338e-12, cumulative = -2.320213e-10
DICPCG:  Solving for p, Initial residual = 0.02550581, Final residual = 0.000251695, No Iterations 63
DICPCG:  Solving for p, Initial residual = 0.0007965135, Final residual = 8.632002e-07, No Iterations 87
time step continuity errors : sum local = 6.121825e-13, global = -1.632092e-14, cumulative = -2.320376e-10
DILUPBiCG:  Solving for omega, Initial residual = 0.00167231, Final residual = 8.475224e-07, No Iterations 1
DILUPBiCG:  Solving for k, Initial residual = 0.06237503, Final residual = 5.434395e-08, No Iterations 3
ExecutionTime = 908.44 s  ClockTime = 1541 s

Courant Number mean: 8.536e-05 max: 0.5396343
deltaT = 0.003333333
Time = 0.13

inverseDistance : detected 2 mesh regions
    zone:0 nCells:1000000  voxels:(58 58 58) bb:(-5.000013 -5.000013 -5.000013) (1.500013 -0.6999873 5.000013)
    zone:1 nCells:222147  voxels:(58 58 58) bb:(-25.00002 -25.00002 -25.00002) (-14.99998 -14.99998 -14.99998)
Overset analysis : nCells : 1222147
    calculated   : 222147
    interpolated : 0 (interpolated from local:0  mixed local/remote:0  remote:0)
    hole         : 1000000

PIMPLE: iteration 1
DILUPBiCG:  Solving for Ux, Initial residual = 4.018201e-05, Final residual = 3.778252e-08, No Iterations 2
DILUPBiCG:  Solving for Uy, Initial residual = 0.001376662, Final residual = 1.575746e-07, No Iterations 3
DILUPBiCG:  Solving for Uz, Initial residual = 0.001359793, Final residual = 2.129072e-07, No Iterations 3
DICPCG:  Solving for p, Initial residual = 0.04250426, Final residual = 0.0004084402, No Iterations 63
DICPCG:  Solving for p, Initial residual = 0.0004863459, Final residual = 4.721974e-06, No Iterations 52
time step continuity errors : sum local = 5.732336e-12, global = -1.012209e-12, cumulative = -2.330498e-10
DICPCG:  Solving for p, Initial residual = 0.02582232, Final residual = 0.000253424, No Iterations 63
DICPCG:  Solving for p, Initial residual = 0.0008050193, Final residual = 8.779276e-07, No Iterations 87
time step continuity errors : sum local = 6.144993e-13, global = -1.843082e-14, cumulative = -2.330682e-10
DILUPBiCG:  Solving for omega, Initial residual = 0.00166794, Final residual = 8.366717e-07, No Iterations 1
DILUPBiCG:  Solving for k, Initial residual = 0.06130901, Final residual = 5.273785e-08, No Iterations 3
ExecutionTime = 938.54 s  ClockTime = 1600 s

Courant Number mean: 8.527172e-05 max: 0.5392976
deltaT = 0.003333333
Time = 0.1333333

inverseDistance : detected 2 mesh regions
    zone:0 nCells:1000000  voxels:(58 58 58) bb:(-5.000013 -5.000013 -5.000013) (1.500013 -0.6999873 5.000013)
    zone:1 nCells:222147  voxels:(58 58 58) bb:(-25.00002 -25.00002 -25.00002) (-14.99998 -14.99998 -14.99998)
